tests/src/test/resources/files/cases/flowbased_computation/3nodes.uct
##C 2007.05.01
Date of situation : 2014/01/16 08:30
##N
##ZBE
BBE1AA1  BE1          0 2 400.00    0.00 0.00000  -500.00 0.00000 0000.00 -1000.0 9000.00 -9000.0
##ZDE
DDE1AA1  DE1          0 2 400.00 1000.00 0.00000     -0.0 0.00000 0000.00     0.0 9000.00 -9000.0
##ZFR
FFR1AA1  FR1          0 2 400.00    0.00 0.00000   -500.0 0.00000 0000.00 -1000.0 9000.00 -9000.0
##L
BBE1AA1  DDE1AA1  1 0 0.0000 10.000 0.000000   5000
BBE1AA1  FFR1AA1  1 0 0.0000 10.000 0.000000   5000
DDE1AA1  FFR1AA1  1 0 0.0000 10.000 0.000000   360
BBE1AA1  DDE1AA1  2 0 0.0000 10.000 0.000000   5000
BBE1AA1  FFR1AA1  2 0 0.0000 10.000 0.000000   5000
DDE1AA1  FFR1AA1  2 0 0.0000 10.000 0.000000   360
##T
##R
